version 2
run General-0-20141104-20:32:17-14908
attr configname General
attr datetime 20141104-20:32:17
attr experiment General
attr inifile routerTerminal.ini
attr iterationvars ""
attr iterationvars2 $repetition=0
attr measurement ""
attr network Network1
attr processid 14908
attr repetition 0
attr replication #0
attr resultdir results
attr runnumber 0
attr seedset 0

scalar Network1.queue 	busy:timeavg 	0.50501568788498
attr interpolationmode  sample-hold
attr title  "server busy state, timeavg"
scalar Network1.queue 	queueingTime:mean 	5.8537311413668
attr interpolationmode  none
attr title  "queueing time at dequeue, mean"
attr unit  s
scalar Network1.queue 	queueingTime:max 	21.565654344057
attr interpolationmode  none
attr title  "queueing time at dequeue, max"
attr unit  s
scalar Network1.queue 	queueLength:timeavg 	1.9708173727007
attr interpolationmode  sample-hold
attr title  "queue length, timeavg"
scalar Network1.queue 	queueLength:max 	15
attr interpolationmode  sample-hold
attr title  "queue length, max"
scalar Network1.queue 	dropped:count 	0
attr interpolationmode  none
attr title  "drop event, count"
scalar Network1.queue1 	busy:timeavg 	0.98975190722713
attr interpolationmode  sample-hold
attr title  "server busy state, timeavg"
scalar Network1.queue1 	queueingTime:mean 	63.861910764829
attr interpolationmode  none
attr title  "queueing time at dequeue, mean"
attr unit  s
scalar Network1.queue1 	queueingTime:max 	95
attr interpolationmode  none
attr title  "queueing time at dequeue, max"
attr unit  s
scalar Network1.queue1 	queueLength:timeavg 	17.796974161274
attr interpolationmode  sample-hold
attr title  "queue length, timeavg"
scalar Network1.queue1 	queueLength:max 	24
attr interpolationmode  sample-hold
attr title  "queue length, max"
scalar Network1.queue1 	dropped:count 	0
attr interpolationmode  none
attr title  "drop event, count"
scalar Network1.queue2 	busy:timeavg 	0.5766079501522
attr interpolationmode  sample-hold
attr title  "server busy state, timeavg"
scalar Network1.queue2 	queueingTime:mean 	1.8079025422445
attr interpolationmode  none
attr title  "queueing time at dequeue, mean"
attr unit  s
scalar Network1.queue2 	queueingTime:max 	12
attr interpolationmode  none
attr title  "queueing time at dequeue, max"
attr unit  s
scalar Network1.queue2 	queueLength:timeavg 	0.52122548947928
attr interpolationmode  sample-hold
attr title  "queue length, timeavg"
scalar Network1.queue2 	queueLength:max 	6
attr interpolationmode  sample-hold
attr title  "queue length, max"
scalar Network1.queue2 	dropped:count 	0
attr interpolationmode  none
attr title  "drop event, count"
scalar Network1.queue3 	busy:timeavg 	0.46438224173331
attr interpolationmode  sample-hold
attr title  "server busy state, timeavg"
scalar Network1.queue3 	queueingTime:mean 	0.72520131875648
attr interpolationmode  none
attr title  "queueing time at dequeue, mean"
attr unit  s
scalar Network1.queue3 	queueingTime:max 	4.5
attr interpolationmode  none
attr title  "queueing time at dequeue, max"
attr unit  s
scalar Network1.queue3 	queueLength:timeavg 	0.22451374274139
attr interpolationmode  sample-hold
attr title  "queue length, timeavg"
scalar Network1.queue3 	queueLength:max 	3
attr interpolationmode  sample-hold
attr title  "queue length, max"
scalar Network1.queue3 	dropped:count 	0
attr interpolationmode  none
attr title  "drop event, count"
scalar Network1.queue4 	busy:timeavg 	0.28443412306165
attr interpolationmode  sample-hold
attr title  "server busy state, timeavg"
scalar Network1.queue4 	queueingTime:mean 	0.26764825004127
attr interpolationmode  none
attr title  "queueing time at dequeue, mean"
attr unit  s
scalar Network1.queue4 	queueingTime:max 	4
attr interpolationmode  none
attr title  "queueing time at dequeue, max"
attr unit  s
scalar Network1.queue4 	queueLength:timeavg 	0.076128295289474
attr interpolationmode  sample-hold
attr title  "queue length, timeavg"
scalar Network1.queue4 	queueLength:max 	4
attr interpolationmode  sample-hold
attr title  "queue length, max"
scalar Network1.queue4 	dropped:count 	0
attr interpolationmode  none
attr title  "drop event, count"
scalar Network1.Terminal 	busy:timeavg 	0.35535680219994
attr interpolationmode  sample-hold
attr title  "server busy state, timeavg"
scalar Network1.Terminal 	queueingTime:mean 	3.6465566865431
attr interpolationmode  none
attr title  "queueing time at dequeue, mean"
attr unit  s
scalar Network1.Terminal 	queueingTime:max 	24.046774382084
attr interpolationmode  none
attr title  "queueing time at dequeue, max"
attr unit  s
scalar Network1.Terminal 	queueLength:timeavg 	1.2347680396803
attr interpolationmode  sample-hold
attr title  "queue length, timeavg"
scalar Network1.Terminal 	queueLength:max 	24
attr interpolationmode  sample-hold
attr title  "queue length, max"
scalar Network1.Terminal 	dropped:count 	0
attr interpolationmode  none
attr title  "drop event, count"
